/*--------------------------------*- C++ -*----------------------------------*\
| =========                 |                                                 |
| \\      /  F ield         | OpenFOAM: The Open Source CFD Toolbox           |
|  \\    /   O peration     | Version:  2.1.1                                 |
|   \\  /    A nd           | Web:      www.OpenFOAM.org                      |
|    \\/     M anipulation  |                                                 |
\*---------------------------------------------------------------------------*/
FoamFile
{
    version     2.0;
    format      ascii;
    class       polyBoundaryMesh;
    location    "constant/polyMesh";
    object      boundary;
}
// * * * * * * * * * * * * * * * * * * * * * * * * * * * * * * * * * * * * * //

8
(
    INLET
    {
        type            wall;
        nFaces          0;
        startFace       29937;
    }
    OUTLET
    {
        type            wall;
        nFaces          0;
        startFace       29937;
    }
    WALL
    {
        type            wall;
        nFaces          1388;
        startFace       29937;
    }
    PATCH
    {
        type            wall;
        nFaces          3600;
        startFace       31325;
    }
    procBoundary7to3
    {
        type            processor;
        nFaces          435;
        startFace       34925;
        matchTolerance  0.0001;
        myProcNo        7;
        neighbProcNo    3;
    }
    procBoundary7to5
    {
        type            processor;
        nFaces          351;
        startFace       35360;
        matchTolerance  0.0001;
        myProcNo        7;
        neighbProcNo    5;
    }
    procBoundary7to6
    {
        type            processor;
        nFaces          351;
        startFace       35711;
        matchTolerance  0.0001;
        myProcNo        7;
        neighbProcNo    6;
    }
    procBoundary7to11
    {
        type            processor;
        nFaces          295;
        startFace       36062;
        matchTolerance  0.0001;
        myProcNo        7;
        neighbProcNo    11;
    }
)

// ************************************************************************* //
