/*--------------------------------*- C++ -*----------------------------------*\
| =========                 |                                                 |
| \\      /  F ield         | OpenFOAM: The Open Source CFD Toolbox           |
|  \\    /   O peration     | Version:  2.1.1                                 |
|   \\  /    A nd           | Web:      www.OpenFOAM.org                      |
|    \\/     M anipulation  |                                                 |
\*---------------------------------------------------------------------------*/
FoamFile
{
    version     2.0;
    format      ascii;
    class       polyBoundaryMesh;
    location    "constant/polyMesh";
    object      boundary;
}
// * * * * * * * * * * * * * * * * * * * * * * * * * * * * * * * * * * * * * //

8
(
    INLET
    {
        type            wall;
        nFaces          0;
        startFace       29457;
    }
    OUTLET
    {
        type            wall;
        nFaces          0;
        startFace       29457;
    }
    WALL
    {
        type            wall;
        nFaces          1396;
        startFace       29457;
    }
    PATCH
    {
        type            wall;
        nFaces          3480;
        startFace       30853;
    }
    procBoundary4to0
    {
        type            processor;
        nFaces          551;
        startFace       34333;
        matchTolerance  0.0001;
        myProcNo        4;
        neighbProcNo    0;
    }
    procBoundary4to5
    {
        type            processor;
        nFaces          349;
        startFace       34884;
        matchTolerance  0.0001;
        myProcNo        4;
        neighbProcNo    5;
    }
    procBoundary4to6
    {
        type            processor;
        nFaces          349;
        startFace       35233;
        matchTolerance  0.0001;
        myProcNo        4;
        neighbProcNo    6;
    }
    procBoundary4to8
    {
        type            processor;
        nFaces          295;
        startFace       35582;
        matchTolerance  0.0001;
        myProcNo        4;
        neighbProcNo    8;
    }
)

// ************************************************************************* //
