/*--------------------------------*- C++ -*----------------------------------*\
| =========                 |                                                 |
| \\      /  F ield         | OpenFOAM: The Open Source CFD Toolbox           |
|  \\    /   O peration     | Version:  2.1.1                                 |
|   \\  /    A nd           | Web:      www.OpenFOAM.org                      |
|    \\/     M anipulation  |                                                 |
\*---------------------------------------------------------------------------*/
FoamFile
{
    version     2.0;
    format      ascii;
    class       polyBoundaryMesh;
    location    "constant/polyMesh";
    object      boundary;
}
// * * * * * * * * * * * * * * * * * * * * * * * * * * * * * * * * * * * * * //

7
(
    INLET
    {
        type            wall;
        nFaces          0;
        startFace       29182;
    }
    OUTLET
    {
        type            wall;
        nFaces          707;
        startFace       29182;
    }
    WALL
    {
        type            wall;
        nFaces          3420;
        startFace       29889;
    }
    PATCH
    {
        type            wall;
        nFaces          0;
        startFace       33309;
    }
    procBoundary12to8
    {
        type            processor;
        nFaces          295;
        startFace       33309;
        matchTolerance  0.0001;
        myProcNo        12;
        neighbProcNo    8;
    }
    procBoundary12to13
    {
        type            processor;
        nFaces          548;
        startFace       33604;
        matchTolerance  0.0001;
        myProcNo        12;
        neighbProcNo    13;
    }
    procBoundary12to14
    {
        type            processor;
        nFaces          548;
        startFace       34152;
        matchTolerance  0.0001;
        myProcNo        12;
        neighbProcNo    14;
    }
)

// ************************************************************************* //
