/*--------------------------------*- C++ -*----------------------------------*\
| =========                 |                                                 |
| \\      /  F ield         | OpenFOAM: The Open Source CFD Toolbox           |
|  \\    /   O peration     | Version:  2.0.1                                 |
|   \\  /    A nd           | Web:      www.OpenFOAM.com                      |
|    \\/     M anipulation  |                                                 |
\*---------------------------------------------------------------------------*/
FoamFile
{
    version     2.0;
    format      ascii;
    class       dictionary;
    location    "system";
    object      decomposeParDict;
}
// * * * * * * * * * * * * * * * * * * * * * * * * * * * * * * * * * * * * * //

numberOfSubdomains 16;

//meshing
method          simple; 

//solving
//method	scotch;

simpleCoeffs
{
    n               ( 2 2 4 );
    delta           0.001;
}

scotchCoeffs
{
    processorWeights ( 1 1 1 1 1 1 1 1 1 1 1 1 1 1 1 );
}

distributed     no;

roots           ( );


// ************************************************************************* //
