/*--------------------------------*- C++ -*----------------------------------*\
| =========                 |                                                 |
| \\      /  F ield         | OpenFOAM: The Open Source CFD Toolbox           |
|  \\    /   O peration     | Version:  2.1.1                                 |
|   \\  /    A nd           | Web:      www.OpenFOAM.org                      |
|    \\/     M anipulation  |                                                 |
\*---------------------------------------------------------------------------*/
FoamFile
{
    version     2.0;
    format      ascii;
    class       polyBoundaryMesh;
    location    "constant/polyMesh";
    object      boundary;
}
// * * * * * * * * * * * * * * * * * * * * * * * * * * * * * * * * * * * * * //

8
(
    INLET
    {
        type            wall;
        nFaces          0;
        startFace       29457;
    }
    OUTLET
    {
        type            wall;
        nFaces          0;
        startFace       29457;
    }
    WALL
    {
        type            wall;
        nFaces          3832;
        startFace       29457;
    }
    PATCH
    {
        type            wall;
        nFaces          0;
        startFace       33289;
    }
    procBoundary8to4
    {
        type            processor;
        nFaces          295;
        startFace       33289;
        matchTolerance  0.0001;
        myProcNo        8;
        neighbProcNo    4;
    }
    procBoundary8to9
    {
        type            processor;
        nFaces          576;
        startFace       33584;
        matchTolerance  0.0001;
        myProcNo        8;
        neighbProcNo    9;
    }
    procBoundary8to10
    {
        type            processor;
        nFaces          576;
        startFace       34160;
        matchTolerance  0.0001;
        myProcNo        8;
        neighbProcNo    10;
    }
    procBoundary8to12
    {
        type            processor;
        nFaces          295;
        startFace       34736;
        matchTolerance  0.0001;
        myProcNo        8;
        neighbProcNo    12;
    }
)

// ************************************************************************* //
