/*--------------------------------*- C++ -*----------------------------------*\
| =========                 |                                                 |
| \\      /  F ield         | OpenFOAM: The Open Source CFD Toolbox           |
|  \\    /   O peration     | Version:  2.1.1                                 |
|   \\  /    A nd           | Web:      www.OpenFOAM.org                      |
|    \\/     M anipulation  |                                                 |
\*---------------------------------------------------------------------------*/
FoamFile
{
    version     2.0;
    format      ascii;
    class       polyBoundaryMesh;
    location    "constant/polyMesh";
    object      boundary;
}
// * * * * * * * * * * * * * * * * * * * * * * * * * * * * * * * * * * * * * //

7
(
    INLET
    {
        type            wall;
        nFaces          0;
        startFace       29298;
    }
    OUTLET
    {
        type            wall;
        nFaces          707;
        startFace       29298;
    }
    WALL
    {
        type            wall;
        nFaces          3420;
        startFace       30005;
    }
    PATCH
    {
        type            wall;
        nFaces          0;
        startFace       33425;
    }
    procBoundary14to10
    {
        type            processor;
        nFaces          309;
        startFace       33425;
        matchTolerance  0.0001;
        myProcNo        14;
        neighbProcNo    10;
    }
    procBoundary14to12
    {
        type            processor;
        nFaces          548;
        startFace       33734;
        matchTolerance  0.0001;
        myProcNo        14;
        neighbProcNo    12;
    }
    procBoundary14to15
    {
        type            processor;
        nFaces          557;
        startFace       34282;
        matchTolerance  0.0001;
        myProcNo        14;
        neighbProcNo    15;
    }
)

// ************************************************************************* //
